obj01
  PyMOL2.1          3D                             0

 38 41  0  0  0  0  0  0  0  0999 V2000
   14.2790   34.9250   18.2200 N   0  0  0  0  0  0  0  0  0  0  0  0
   15.1950   34.3300   17.3800 C   0  0  0  0  0  0  0  0  0  0  0  0
   16.1930   35.1690   16.7600 C   0  0  0  0  0  0  0  0  0  0  0  0
   17.1800   34.5130   15.8670 C   0  0  0  0  0  0  0  0  0  0  0  0
   17.0120   33.2200   15.6160 C   0  0  0  0  0  0  0  0  0  0  0  0
   15.9190   32.4720   16.1870 C   0  0  0  0  0  0  0  0  0  0  0  0
   14.9790   33.1070   17.0030 C   0  0  0  0  0  0  0  0  0  0  0  0
   18.1360   32.3310   14.6600 S   0  0  0  0  0  0  0  0  0  0  0  0
   18.7560   33.2470   13.7850 O   0  0  0  0  0  0  0  0  0  0  0  0
   17.4530   31.2210   14.0980 O   0  0  0  0  0  0  0  0  0  0  0  0
   19.3160   31.7080   15.5980 N   0  0  0  0  0  0  0  0  0  0  0  0
   20.1280   32.6990   16.3530 C   0  0  0  0  0  0  0  0  0  0  0  0
   21.6280   32.3550   16.4320 C   0  0  0  0  0  0  0  0  0  0  0  0
   22.2790   32.3170   15.0340 C   0  0  0  0  0  0  0  0  0  0  0  0
   22.2820   33.4010   17.3290 C   0  0  0  0  0  0  0  0  0  0  0  0
   19.0630   30.4330   16.2940 C   0  0  0  0  0  0  0  0  0  0  0  0
   19.9620   29.3370   15.7380 C   0  0  0  0  0  0  0  0  0  0  0  0
   19.8950   28.2060   16.6040 O   0  0  0  0  0  0  0  0  0  0  0  0
   19.5990   28.8950   14.2970 C   0  0  0  0  0  0  0  0  0  0  0  0
   20.7090   28.0310   13.8050 N   0  0  0  0  0  0  0  0  0  0  0  0
   21.5660   28.4050   12.8870 C   0  0  0  0  0  0  0  0  0  0  0  0
   21.6340   29.4420   12.2990 O   0  0  0  0  0  0  0  0  0  0  0  0
   22.4690   27.4020   12.6550 O   0  0  0  0  0  0  0  0  0  0  0  0
   23.3210   27.5110   11.4960 C   0  0  0  0  0  0  0  0  0  0  0  0
   24.6400   26.8960   11.9120 C   0  0  0  0  0  0  0  0  0  0  0  0
   24.4130   25.4750   11.8330 O   0  0  0  0  0  0  0  0  0  0  0  0
   23.4930   25.2270   10.7790 C   0  0  0  0  0  0  0  0  0  0  0  0
   22.4830   24.3630   11.2360 O   0  0  0  0  0  0  0  0  0  0  0  0
   21.1930   25.0630   11.2960 C   0  0  0  0  0  0  0  0  0  0  0  0
   21.3630   26.2560   10.3830 C   0  0  0  0  0  0  0  0  0  0  0  0
   22.8390   26.5370   10.3960 C   0  0  0  0  0  0  0  0  0  0  0  0
   18.3070   28.1490   14.1660 C   0  0  0  0  0  0  0  0  0  0  0  0
   18.0540   26.4000   12.3630 C   0  0  0  0  0  0  0  0  0  0  0  0
   17.8310   26.0250   11.0510 C   0  0  0  0  0  0  0  0  0  0  0  0
   17.5970   26.9810   10.0980 C   0  0  0  0  0  0  0  0  0  0  0  0
   17.5500   28.2930   10.4600 C   0  0  0  0  0  0  0  0  0  0  0  0
   17.7650   28.6740   11.7670 C   0  0  0  0  0  0  0  0  0  0  0  0
   18.0240   27.7330   12.7570 C   0  0  0  0  0  0  0  0  0  0  0  0
  1  2  1  0  0  0  0
  2  3  4  0  0  0  0
  2  7  4  0  0  0  0
  3  4  4  0  0  0  0
  4  5  4  0  0  0  0
  5  6  4  0  0  0  0
  5  8  1  0  0  0  0
  6  7  4  0  0  0  0
  8  9  2  0  0  0  0
  8 10  2  0  0  0  0
  8 11  1  0  0  0  0
 11 12  1  0  0  0  0
 11 16  1  0  0  0  0
 12 13  1  0  0  0  0
 13 14  1  0  0  0  0
 13 15  1  0  0  0  0
 16 17  1  0  0  0  0
 17 18  1  0  0  0  0
 17 19  1  0  0  0  0
 19 20  1  0  0  0  0
 19 32  1  0  0  0  0
 20 21  1  0  0  0  0
 21 22  2  0  0  0  0
 21 23  1  0  0  0  0
 23 24  1  0  0  0  0
 24 25  1  0  0  0  0
 24 31  1  0  0  0  0
 25 26  1  0  0  0  0
 26 27  1  0  0  0  0
 27 28  1  0  0  0  0
 27 31  1  0  0  0  0
 28 29  1  0  0  0  0
 29 30  1  0  0  0  0
 30 31  1  0  0  0  0
 32 38  1  0  0  0  0
 33 34  4  0  0  0  0
 33 38  4  0  0  0  0
 34 35  4  0  0  0  0
 35 36  4  0  0  0  0
 36 37  4  0  0  0  0
 37 38  4  0  0  0  0
M  END
